packages/pydae-bps/src/pydae/bps/syns/psat/smib_milano6ord_mdl.m
Bus.con = [ ... 
  1  20  1  0  1  1;
  2  20  1  0  1  1;
 ];

Line.con = [ ... 
  1  2  200000  20  50  0  0  0.01  0.05  0  0  0  0  0  0  1;
 ];

SW.con = [ ... 
  2  2000  20  1  0  1.5  -1.5  1.1  0.9  0.8  1  1  1;
 ];

PQgen.con = [ ... 
  1  1500  20  0.8  0.6  1.1  0.9  0  1;
 ];

Syn.con = [ ... 
  1  1500  20  50  6  0.234  0  2.135  0.34  0.269  6.47  0.022  2.046  0.573  0.269  0.61  0.034  12.6  0  0  0  1  1  0  0  0  1  1;
 ];

Bus.names = {... 
  'Bus1'; 'Bus2'};

